
**** 05/31/19 12:21:39 ********* PSpice 9.2 (Mar 2000) ******** ID# 0 ********

 ** Profile: "SCHEMATIC1-asdf"  [ D:\backep c\Uni\Term e 4\Electric Circuits\HW\8\orc\1-SCHEMATIC1-asdf.sim ] 


 ****     CIRCUIT DESCRIPTION


******************************************************************************




** Creating circuit file "1-SCHEMATIC1-asdf.sim.cir" 
** WARNING: THIS AUTOMATICALLY GENERATED FILE MAY BE OVERWRITTEN BY SUBSEQUENT SIMULATIONS

*Libraries: 
* Local Libraries :
* From [PSPICE NETLIST] section of C:\Orcad\PSpice\PSpice.ini file:
.lib "nom.lib" 

*Analysis directives: 
.TRAN  0 10s 0 
.PROBE V(*) I(*) W(*) D(*) NOISE(*) 
.INC ".\1-SCHEMATIC1.net" 



**** INCLUDING 1-SCHEMATIC1.net ****
* source 1
C_2uF         N00141 N00550  1n  
I_I2         N00141 0 DC 0Adc AC 0Aac
+SIN 0 10 318.319 0 0 0
R_R1         0 N00141  2k  
R_R2         0 N00550  4k  
L_L1         N00141 0  50mH  

**** RESUMING 1-SCHEMATIC1-asdf.sim.cir ****
.END

**** 05/31/19 12:21:39 ********* PSpice 9.2 (Mar 2000) ******** ID# 0 ********

 ** Profile: "SCHEMATIC1-asdf"  [ D:\backep c\Uni\Term e 4\Electric Circuits\HW\8\orc\1-SCHEMATIC1-asdf.sim ] 


 ****     INITIAL TRANSIENT SOLUTION       TEMPERATURE =   27.000 DEG C


******************************************************************************



 NODE   VOLTAGE     NODE   VOLTAGE     NODE   VOLTAGE     NODE   VOLTAGE


(N00141)    0.0000 (N00550)    0.0000 




    VOLTAGE SOURCE CURRENTS
    NAME         CURRENT


    TOTAL POWER DISSIPATION   0.00E+00  WATTS



          JOB CONCLUDED

          TOTAL JOB TIME             .53
